*%/*                                                               @L4A 
         MACRO                                                          
&NAME    DCB   &DDNAME=0,&MACRF=,                      FOUNDATION BLOCK*
               &BFTEK=,&BFALN=,&EODAD=1,&RECFM=,&EXLST=0,     EXTENSION*
               &BUFNO=0,&BUFCB=1,&BUFL=0,&DSORG=,&IOBAD=1,       COMMON*
               &IMSK=,&UMSK=,&EOEA=0,&PCIA=0,                 EXCP APP1*
               &SIOA=0,&CENDA=0,&XENDA=0,&AERR=0,&PGFX=NO,    EXCP APP2*
               &HIARCHY=,                                              *
               &OPTCD=,&SYNAD=1,&BLKSIZE=0,&NCP=0,&LRECL=0,&EROPT=,    *
               &BUFRQ=0,&CLPS=1,&INTVL=0,&CPRI=,             QTAM LINE1*
               &THRESH=,&CPOLL=,&LCBAD=1,                     QTAMLINE2*
               &TRMAD=1,&SOWA=0,                             QTAM QUEUE*
               &MON=,&MONDLY=,&WRU=,&IAM=,&EOM=,&EOT=,   BTAM/QTAM WTTA*
               &LIMCT=0,                                           BDAM*
               &NTM=0,&CYLOFL=0,&RKP=0,&MSWA=1,                  ISAM 1*
               &SMSI=0,&SMSW=0,&MSHI=1,&DBUFNO=0,                ISAM 2*
               &IMGADR=0,&SSRTN=0,&DCBHDR=0,&IMGRTE=0,          YL03123,
               &QSAMEX=0,                                      @Y30GS11,
               &DEVD=,&KEYLEN=,&TRTCH=,&DEN=,&ERRCNT=0,&FRID=,  YL03127,
               &PRTSP=,&CODE=,&MODE=,&STACK=,                          *
               &GNCP=1,&POLST=0,&GTYPE=EXPRESS,&ERROPT=,&LERB=,   13549*
               &BUFCT=255,&REPOS=N,&TRANS=,&SCT=,&INVLIST=,&BUFOUT=,   *
               &MH=,&PCI=,&BUFMAX=,&BUFIN=,&BUFSIZE=,&RESERVE=,        *
               &BACKUP=NO,&BKUPDCB=0,&BRINGUP=NO,&DMPAUTO=NO,    ICB447*
               &DUMPDCB=0,&IPLAUTO=NO,&IPLTXID=,&CKPTDCB=0,      ICB447*
               &FUNC=,                                                 *
               &READYQ=,&POWERON=NO,                               @01C*
               &BUFOFF=,                                     ICBI DCB-3*
               &STOP=,                                       ICBI DCB-3*
               &DCBE=                                              @L3A 
.*                                                                      
.*                      SET SYMBOL DECLARATIONS                         
.*                                                                      
         GBLA  &A0            Offset to origin of DCB                   
         GBLB  &DSORG0,&DSORG1,&DSORG2,&DSORG3,&DSORG4,&DSORG5,&DSORG6  
         GBLB  &MACRFD,&MACRFE,&MACRFF,&MAC5,&MAC6,&MAC7,&FXSW,&RECFM0  
         GBLB  &DSORG7,&MACRF0,&MACRF1,&MACRF2,&MACRF3,&MACRF4,&MACRF5  
         GBLB  &MACRF6,&MACRF7,&MACRF8,&MACRF9,&MACRFA,&MACRFB,&MACRFC  
         GBLB  &RECFM1,&RECFM2,&RECFM3,&RECFM4,&RECFM5,&RECFM6,&RECFM7  
         GBLB  &OPTCD0,&OPTCD1,&OPTCD2,&OPTCD3,&OPTCD4,&OPTCD6,&OPTCD7  
         GBLB  &DSORG9,&DSORGA                                          
         GBLB  &COMSW,&MAC4,&DSORG8,&OPTCD5                        RER1 
         LCLA  &A1,&A2,&B(4)                                      13549 
         LCLB  &IFLGS4,&IFLGS5,&IFLGS6,&IFLGS7                          
         LCLB  &B0,&B1,&B2,&B3,&B4,&B5,&B6,&B7                          
         LCLB  &WTTFLG2,&WTTFLG3                                        
         LCLC  &MTROFF,&EOMC,&EOTC                                      
         LCLC  &C0,&C1,&ERROPTN,&C2                               13549 
         LCLA  &BA1,&BA2                                                
         LCLB  &BS2,&BS3,&BS4,&BS5,&BS6,&BS7,&BS8                       
         LCLB  &BI                                                      
         LCLA  &A4,&LCNT                                           @L1A 
         LCLA  &LSCAN,&LSCNT                                       @02A 
         LCLC  &NNNNK         Numeric part of LRECL=nnnnK          @L1A 
         LCLB  &DCBESW        DCBE= was coded                      @L3A 
         LCLC  &TEMPC         To do alignment for esthetics        @03A 
.* TCAM SUPPORT OPERANDS                                                
         LCLA  &SCTAD,&ICDE,&INTFACE                                    
         LCLB  &SW                                                      
         LCLC  &TRNTBL,&TRNNO                                           
         LCLA  &WRKA,&WRKB,&WRKC                                        
         LCLA  &LGTH,&INCR,&NUMENT                                      
         LCLA  &TC1                                                     
         LCLC  &TC(4)                                                   
.*                                                                      
.* FUNC SUPPORT OPERANDS                                                
         LCLA  &AFUNC,&AFUNC1,&AFUNC2,&AFUNC3,&AMODE                    
         LCLC  &LFUNC                                                   
.*                                                                      
.********************************************************************** 
.*                                                                      
.*$MAC(DCB): SPECIFY DATA CONTROL BLOCK.                                
.*                                                                      
.*PROPRIETARY V3 STATEMENT                                              
.*Licensed Materials - Property of IBM                                  
.*"Restricted Materials of IBM"                                         
.*5694-A01                                                              
.*Copyright IBM Corp. 1978,2010                                         
.*END PROPRIETARY V3 STATEMENT                                          
.*                                                                      
.* STATUS - z/OS 1.5 DFSMS                                         @P2C 
.*                                                                      
.*CHANGE ACTIVITY SUMMARY -                                             
.*                                                                      
.*$L1=ANSI,JDP1111,,STLLRU:    ANSI-78 TAPE LABEL SUPPORT          @L1A 
.*$01=OZ81445,JDP1111,,FEGHA:  BTAM POWER-ON SUPPORT               @01A 
.*$L2=DFP/XA,HDP2210,84115,STLRGB: NEW COPYRIGHT MACRO             @L2A 
.*$02=OZ91741,HDP2210,,ISGJBM: MSGIGG101 WHEN LRECL USES AN ABSEXP @02A 
.*$H1=NEWTAPES,JDP2231,87209,STLPD: O/C/E 9348, 3424 TAPE SUPPORT  @H1A 
.*$H2=3480X,JDP3311,88260,STLFAO:   3480 COMPACTION SUPPORT        @H2A 
.*$L3=DCBE,JDZ1110,920817,SJPLREB: DCBE= PARAMETER SUPPORT         @L3A 
.*$03=DCBE,OY58248,921016,SJPLWER: Further 31-bit fixup            @03A 
.*$L4=xxxx,xxxxxxx,930930,SJPLmet: PL/X support                    @L4A 
.*$P1=K130815,HDZ11C0,941207,SJPLGEC: MODE PARM FOR UNIT RECORD    @P1A 
.*                                 ALWAYS 0 EVEN IF SPECIFIED.     @P1A 
.*$P2=K1H0479,HDZ11H0,020715,SJPLWER: SAM enhanced data integrity  @P2A 
.*$L5=XTIOT,HDZ1C1C0,090511,SJPLJAL: REMOVE XTIOT CHANGES          @L5A 
.*                                                                      
.********************************************************************** 
.*                                                                      
         AIF  ('&DSORG' NE 'TR').IHB01 IF NOT DSORG=TR(TCAM 3705)ICB477 
&NAME    IHB03 &BACKUP,&BKUPDCB,&BRINGUP,           EXPAND DSORG=TR DCBX
               &DDNAME,&DMPAUTO,&DUMPDCB,&EXLST,                       X
               &IPLAUTO,&IPLTXID,&MACRF,&CKPTDCB                 ICB477 
         MEXIT                                                          
.*                                                                      
.*             ANALYZE DSORG, MACRF, RECFM, OPTCD AND NEGATIVE OFFSET   
.*                                                                      
.IHB01   IHB01 &DSORG,&MACRF,&BFTEK,&BFALN,&EODAD,&RECFM,&EXLST,       *
               &BUFCB,&BUFL,&IOBAD,&EOEA,&PCIA,&SIOA,&CENDA,&XENDA,    *
               &AERR,&PGFX,&OPTCD,&BUFNO,&DEVD,&REPOS,&DCBE             
         AIF   (&MACRF0 OR &MACRF1 OR &MACRF2 OR &MACRF3 OR &MACRF4 OR *
               &MACRF5 OR &MACRF6 OR &MACRF7 OR &MACRF8 OR &MACRF9 OR &*
               MACRFA OR &MACRFB OR &MACRFC OR &MACRFD).DGN0            
         AIF   (&MACRFE OR &MACRFF).DGN0                                
         IHBERMAC 171                                                   
.* THE FOLLOWING LINE OF CODE PUTS THE NAME FOR THE DCB ON A FULL WORD  
.* BOUNDARY IN CASE THERE IS A SEVERE ERROR WHICH WOULD INHIBIT DCB     
.* EXPANSION.                                                           
&NAME    DS    0F            GENERATED TO DEFINE NAME                   
         MEXIT                                                          
.*                      DIAGNOSE DEVICE SUB-PARAMETERS                  
.*                                                                      
.DGN0    AIF   (NOT &DSORG8).DGN00   Branch if not DSORG=GS (GAM)  @03C 
&NAME    IHB02 &DSORG,&MACRF,&DDNAME,&EXLST,&GNCP,&POLST,&GTYPE         
         AIF   ( T'&HIARCHY EQ 'O').GEN7C                               
         IHBERMAC 190,HIARCHY             ERROR                         
         AGO   .GEN7C                                                   
.DGN00   AIF   (T'&KEYLEN EQ 'O' OR &DSORG0 OR &DSORG2 OR (&A0 LE 4 AND*
                '&DEVD' NE 'TA' AND (&DSORG1 OR &DSORG6 OR &MACRF0))).D*
               GN1                                                      
         IHBERMAC 100,KEYLEN                                            
.DGN1    AIF   (T'&CODE EQ 'O' OR '&DEVD' EQ 'PT').DGN2                 
         AIF   ('&DEVD' EQ 'BS' AND &DSORG3).DGN2                       
         IHBERMAC 101,CODE                                              
.DGN2    AIF   ('&DEVD' EQ 'PC' OR '&DEVD' EQ 'RD').DGN3                
         AIF   (T'&MODE EQ 'O').DGN2A                                   
         AIF   ('&DEVD' EQ 'BS' AND &DSORG3).DGN2A                      
         IHBERMAC 102,MODE                                              
.DGN2A   AIF   (T'&STACK EQ 'O').DGN3                                   
         IHBERMAC 103,STACK                                             
.DGN3    AIF   (T'&PRTSP EQ 'O' OR '&DEVD' EQ 'PR').DGN4                
         IHBERMAC 104,PRTSP                                             
.DGN4    AIF   (T'&TRTCH EQ 'O' OR '&DEVD' EQ 'TA').DGN5                
         IHBERMAC 105,TRTCH                                             
.DGN5    AIF   (T'&DEN EQ 'O' OR '&DEVD' EQ 'TA').DGN6                  
         IHBERMAC 106,DEN                                               
.*                                                                      
.*                      DIAGNOSE BTAM-QTAM OPERANDS                     
.*                                                                      
.DGN6    AIF   ('&DEVD' EQ 'WT' AND &DSORG3).DGN61                      
         AIF   (T'&MON EQ 'O').DGN601                                   
         IHBERMAC 107,MON                                               
.DGN601  AIF   (T'&MONDLY EQ 'O').DGN602                                
         IHBERMAC 108,MONDLY                                            
.DGN602  AIF   (T'&WRU EQ 'O').DGN603                                   
         IHBERMAC 109,WRU                                               
.DGN603  AIF   (T'&IAM EQ 'O').DGN604                                   
         IHBERMAC 110,IAM                                               
.DGN604  AIF   (T'&EOM EQ 'O').DGN605                                   
         IHBERMAC 111,EOM                                               
.DGN605  AIF   (T'&EOT EQ 'O').DGN61                                    
         IHBERMAC 112,EOT                                               
.DGN61   ANOP                                                           
         AIF   (&DSORG3 AND (&MACRF1 OR &MACRF9)).DGN6G                 
         AIF   ('&BUFRQ' EQ '0').DGN6B                         @ZA02213 
         IHBERMAC 107,BUFRQ                                             
.DGN6B   AIF   ('&CLPS' EQ '1').DGN6C                                   
         IHBERMAC 109,CLPS                                              
.DGN6C   AIF   (&DSORG9 OR &DSORGA).DGN6D                               
         AIF   ('&INTVL' EQ '0').DGN6D                                  
         IHBERMAC 110,INTVL                                             
.DGN6D   AIF   (&DSORG9 OR &DSORGA).DGN6E                               
         AIF   (T'&CPRI EQ 'O').DGN6E                                   
         IHBERMAC 111,CPRI                                              
.DGN6E   ANOP                                                           
.DGN6F   AIF   (T'&CPOLL EQ 'O').DGN6G                                  
         IHBERMAC 113,CPOLL                                             
.DGN6G   AIF   ('&SOWA' EQ '0').DGN6A                          @ZA02213 
         IHBERMAC 114,SOWA                                              
.DGN6A   AIF   ('&TRMAD' EQ '1').DGN6H                         @ZA02213 
         IHBERMAC 108,TRMAD                                       13549 
.DGN6H   ANOP                                                     13549 
.* THIS CODE IS INTENDED TO ALLOW BOTH 'ERROPT' AND 'EROPT' SPELLING    
.* FOR BTAM USERS.  ALL OTHER USERS WILL NOT BE PERMITTED TO USE        
.* THIS SPELLING.                                                       
.* DELETION OF THIS CODE WILL DISALLOW THAT SPELLING.                   
         AIF   (&DSORG3 AND (&MACRF2 OR &MACRFA)).ISBTAM          13549 
         AIF   (T'&ERROPT EQ 'O').DGN6I                           13549 
         IHBERMAC 54,,ERROPT                                            
         MEXIT                                                    13549 
.ISBTAM  AIF   (T'&ERROPT EQ 'O').CKEROPT                         13549 
&ERROPTN SETC  '&ERROPT'                                          13549 
&A2      SETA  K'&ERROPT                                          13549 
&C2      SETC  'ERROPT'                                           13549 
         AGO   .DGN6I                                             13549 
.CKEROPT ANOP                                                     13549 
.* END OF CODE DELETION REGARDING 'ERROPT' KEYWORD.               13549 
&C2      SETC  'EROPT'                                            13549 
         AIF   (T'&EROPT EQ 'O').OMITTED                          13549 
&ERROPTN SETC  '&EROPT'                                           13549 
&A2      SETA  K'&EROPT                                           13549 
         AGO   .DGN6I                                             13549 
.OMITTED ANOP                                                     13549 
&ERROPTN SETC  'E'                     ASSIGN BTAM STANDARD VALUE 13549 
&A2      SETA  1                                                  13549 
.DGN6I   ANOP                                                     13549 
.*                                                                      
.*                      DIAGNOSE COMMON OPERANDS                        
.*                                                                      
.DGN7    AIF   (&COMSW AND NOT (&DSORG3 AND (&MACRF1 OR &MACRF9))).DGN7*
               C                                               @ZA02213 
         AIF   ('&BUFNO' EQ '0').DGN7A                                  
         IHBERMAC 115,BUFNO                                             
.DGN7A   AIF   ('&BUFCB' EQ '1').DGN7B                                  
         IHBERMAC 116,BUFCB                                             
.DGN7B   AIF   ('&BUFL' EQ '0').DGN7C                                   
         IHBERMAC 117,BUFL                                              
.DGN7C   AIF   ('&IOBAD' EQ '1' OR &DSORG3 OR &MACRF0).DGN7D   @ZA02213 
         IHBERMAC 118,IOBAD                                             
.*                                                                      
.*                      DIAGNOSE EXTENSION OPERANDS                     
.*                                                                      
.DGN7D   AIF   (&FXSW AND NOT (&DSORG3 AND (&MACRF1 OR &MACRF9))).DGN7I 
.*                                                             @ZA02213 
         AIF   (T'&BFTEK EQ 'O').DGN7E                                  
         IHBERMAC 119,BFTEK                                             
.DGN7E   AIF   (T'&BFALN EQ 'O').DGN7F                                  
         IHBERMAC 120,BFALN                                             
.DGN7F   AIF   ('&EODAD' EQ '1').DGN7G                         @ZA02213 
         IHBERMAC 121,EODAD                                             
.DGN7G   AIF   (T'&RECFM EQ 'O').DGN7H                                  
         IHBERMAC 122,RECFM                                             
.DGN7H   AIF   ('&EXLST' EQ '0' OR &DSORG3).DGN7I                       
         IHBERMAC 123,EXLST                                             
.DGN7I   AIF   ('&DDNAME' NE '0').DGN7J                                 
         IHBERMAC 167                                                   
         AGO   .DGN7L                                                   
.DGN7J   AIF   (K'&DDNAME LE 8).DGN7L                                   
         IHBERMAC 168                                                   
.*                                                                      
.*                      DIAGNOSE EXCP INTERFACE OPERANDS                
.*                                                                      
.DGN7L   AIF   (&MACRF0).DGN7T                                          
         AIF   (T'&IMSK EQ 'O').DGN7M                                   
         IHBERMAC 124,IMSK                                              
.DGN7M   AIF   (T'&UMSK EQ 'O').DGN7N                                   
         IHBERMAC 125,UMSK                                              
.DGN7N   AIF   ('&EOEA' EQ '0').DGN7O                                   
         IHBERMAC 126,EOEA                                              
.DGN7O   AIF   ('&PCIA' EQ '0').DGN7P                                   
         IHBERMAC 127,PCIA                                              
.DGN7P   AIF   ('&SIOA' EQ '0').DGN7Q                                   
         IHBERMAC 128,SIOA                                              
.DGN7Q   AIF   ('&CENDA' EQ '0').DGN7R                                  
         IHBERMAC 129,CENDA                                             
.DGN7R   AIF   ('&XENDA' EQ '0').DGN7S                                  
         IHBERMAC 130,XENDA                                             
.DGN7S   AIF   ('&AERR' EQ '0').DGN7T                                   
         IHBERMAC 131,AERR                                              
.DGN7T   AIF   (T'&UMSK EQ 'O' OR '&AERR' NE '0' OR NOT &MACRF0).DGN7U  
         IHBERMAC 175                                                   
.DGN7U   AIF   ('&SIOA' NE '0' AND '&PGFX' NE 'YES').DGN8               
         AIF   ('&SIOA' EQ '0' AND '&PGFX' NE 'YES').DGN8               
         AIF   ('&SIOA' NE '0' AND '&PGFX' EQ 'YES').DGN8               
         IHBERMAC 128,PGFX                                              
.*                                                                      
.*                      DIAGNOSE ACCESS METHOD INTERFACE OPERANDS       
.*   (Branch if not EXCP & DSORG is IS, PS or PO.)                      
.DGN8    AIF   (NOT &MACRF0 AND (&DSORG0 OR &DSORG1 OR &DSORG6)).DGN8D  
         AIF   ('&SYNAD' EQ '1' OR &DSORG2).DGN8A  BDAM|¬SYNAD @ZA02213 
         IHBERMAC 132,SYNAD                                             
.DGN8A   AIF   ('&BLKSIZE' EQ '0' OR (&DSORG2 OR &DSORGA)).DGN8B        
.*       (BLKSIZE coded with BDAM or TCAM message queue.)    ICBI DCB-9 
         IHBERMAC 133,BLKSIZE                                           
.DGN8B   AIF   ('&NCP' EQ '0').DGN8C                                    
         IHBERMAC 134,NCP                                               
.DGN8C   AIF   ('&LRECL' EQ '0').DGN8D                                  
         IHBERMAC 135,LRECL                                             
.DGN8D   AIF   (T'&EROPT EQ 'O' OR (&DSORG1 OR &DSORG3)).DGN8E    13549 
         IHBERMAC 136,EROPT                                             
.DGN8E   AIF   ('&LIMCT' EQ '0' OR &DSORG2).DGN8F                       
         IHBERMAC 137,LIMCT                                             
.DGN8F   AIF   (&DSORG0).DGN9           Branch if DSORG=IS              
         AIF   ('&NTM' EQ '0').DGN8G                                    
         IHBERMAC 138,NTM                                               
.DGN8G   AIF   ('&CYLOFL' EQ '0').DGN8H                                 
         IHBERMAC 139,CYLOFL                                            
.DGN8H   AIF   ('&RKP' EQ '0').DGN8I                                    
         IHBERMAC 140,RKP                                               
.DGN8I   AIF   ('&MSWA' EQ '1').DGN8J                                   
         IHBERMAC 141,MSWA                                              
.DGN8J   AIF   ('&SMSI' EQ '0').DGN8K                                   
         IHBERMAC 142,SMSI                                              
.DGN8K   AIF   ('&SMSW' EQ '0').DGN8L                                   
         IHBERMAC 143,SMSW                                              
.DGN8L   AIF   ('&MSHI' EQ '1').DGN8M                                   
         IHBERMAC 144,MSHI                                              
.DGN8M   AIF   ('&DBUFNO' EQ '0').DGN9                                  
         IHBERMAC 145,DBUFNO                                            
.DGN9    ANOP                                                           
.*                                                                      
.*             DIAGNOSE FUNC OPERAND                                    
.*                                                                      
&AFUNC   SETA  0                                                        
         AIF   ('&FUNC' EQ '').DGN90Z                                   
&AFUNC1  SETA  K'&FUNC                                                  
         AIF   ('&DEVD' EQ 'RD' OR '&DEVD' EQ 'PC').DGN90A     @ZA00022 
         IHBERMAC 100,FUNC   IHB050 FUNC INCONSISTENT--IGNORED @ZA00022 
.DGN90A  ANOP                                                           
&AFUNC2  SETA  2                                                        
&AFUNC3  SETA  7                                                        
.DGN90C  AIF   ('&FUNC'(&AFUNC1,1) EQ 'IRPWDXT'(&AFUNC3,1)).DGN90E      
&AFUNC3  SETA  &AFUNC3-1                                                
&AFUNC2  SETA  &AFUNC2+&AFUNC2                                          
         AIF   (&AFUNC3 NE 0).DGN90C                                    
&LFUNC   SETC  '&FUNC'(&AFUNC1,1)                                       
         MNOTE 12,'IBH0132 INVALID CHARACTER IN FUNC OPERAND-&LFUNC'    
&AFUNC   SETA  0                                                        
         AGO   .DGN90Z                                                  
.DGN90E  ANOP                                                           
&AFUNC   SETA  &AFUNC+&AFUNC2                                           
&AFUNC1  SETA  &AFUNC1-1                                                
         AIF   (&AFUNC1 NE 0).DGN90A                                    
         AIF   (&AFUNC EQ 128 OR &AFUNC EQ 64 OR &AFUNC EQ 32).DGN90Z   
         AIF   (&AFUNC EQ 16 OR &AFUNC EQ 18 OR &AFUNC EQ 22).DGN90Z    
         AIF   (&AFUNC EQ 96 OR &AFUNC EQ 104 OR &AFUNC EQ 80).DGN90Z   
         AIF   (&AFUNC EQ 82 OR &AFUNC EQ 86 OR &AFUNC EQ 48).DGN90Z    
         AIF   (&AFUNC EQ 52 OR &AFUNC EQ 54 OR &AFUNC EQ 112).DGN90Z   
         AIF   (&AFUNC EQ 116 OR &AFUNC EQ 118 OR &AFUNC EQ 120).DGN90Z 
         AIF   (&AFUNC EQ 20 OR &AFUNC EQ 84).DGN90Z                    
         MNOTE 12,'IHB0131 INVALID COMBINATION OF CHARACTERS IN FUNC OP*
               ERAND-&FUNC'                                             
&AFUNC   SETA  0                                                        
.DGN90Z  ANOP                                                           
.*                                                                 @L3A 
.*                      DIAGNOSE DCBE OPERAND                      @L3A 
         AIF   (T'&DCBE EQ 'O').DGNA0Z      DCBE omitted           @L3A 
.* DCBE= is supported for (DSORG = PS or PO or DA or MACRF=E)      @P2C 
.* IHB01 already set the DCB origin to 0 to allow for DCBE address.@P2C 
.* Origin (&A0) of 0 means DEVD=DA or TA or DCBE= specified        @P2C 
         AIF   ((&DSORG1 OR &DSORG6 OR &DSORG2 OR &MACRF0)             *
               AND &A0 EQ 0                                            *
               ).DGNA1                      DCBE= APPEARS VALID    @P2C 
         MNOTE 12,'DCBE CONFLICTS WITH DSORG'                      @L3A 
         AGO   .DGNA0Z                                             @L3A 
.DGNA1   ANOP                                                      @L3A 
         AIF   (T'&HIARCHY EQ 'O').DGNA3    HIARCHY NOT SPECIFIED  @L3A 
         IHBERMAC 1304,DCBE,HIARCHY                                @L3A 
         AGO   .DGNA0Z                                             @L3A 
.DGNA3   ANOP                                                      @L3A 
&DCBESW  SETB  1                            INDICATE DCBE VALID    @L3A 
.DGNA0Z  ANOP                                                           
.*                                                                      
.*                      GENERATE ORIGIN OF DCB                          
.*                                                                      
         SPACE 1                                                   @03C 
*                       DATA CONTROL BLOCK                              
*                                                                       
.* THE FOLLOWING LINES OF CODE CHECK TO SEE WHETHER THE ORG VALUE       
.* CALCULATED BY IHB01 HAS A MEANING OTHER THAN ZERO.  IF THE VALUE     
.* IS ZERO, THE ORG WILL NOT BE PERFORMED.  THE DCB WILL BE ALIGNED     
.* TO A FULL WORD BOUNDARY.                                             
         AIF   (&A0 NE 0).DGN9A                       @ZA43308 @ZA41552 
&NAME    DC    0F'0'          ORIGIN ON WORD BOUNDARY                   
         AGO   .DGN9B                                                   
.DGN9A   ANOP                                                           
.*       ORG   *-&A0                   TO ELIMIN. UNUSED SPACE @ZA43308 
&NAME    DS    0F'0'          ORIGIN ON WORD BOUNDARY                   
         ORG   *+&A0          TO ORIGIN GENERATION                      
.DGN9B   ANOP                                                           
         AIF   (&A0 EQ 40).GEN4A       IF NO COMMON OR EXTENSION        
.*                                                                      
.*                      GENERATE DEVICE DEPENDENCY INTERFACE            
.*                                                                      
         AIF   (&DSORG3 AND '&DEVD' EQ 'WT').GEN1Q                      
         AIF   (&A0 GT 4).GEN10         IF NOT TA,DA,OR MR              
&A1      SETA  16-&A0                                                   
         AIF   ('&DEVD' NE 'TA').GEN1D   IF NOT TA                      
*                       MAGNETIC TAPE DEVICE INTERFACE                  
         AIF   (&DCBESW EQ 0).TA0A      DO NOT GENERATE DCBE       @L3A 
         DC    A(&DCBE)       DCBE ADDRESS                              
&A1      SETA  &A1-4                    DECREMENT FOR DCBE STORAGE @L3A 
.TA0A    ANOP                                                      @L3A 
         DC    BL&A1.'0'      NERRS,NOISE,UERRS,BLKCT                   
         AIF   (T'&TRTCH EQ 'O').TA1O       IF TRTCH NOT SPECIFIED @H2C 
         AIF   ('&TRTCH' EQ 'E' OR '&TRTCH' EQ 'T' OR '&TRTCH' EQ 'C' O*
               R '&TRTCH' EQ 'ET' OR '&TRTCH' EQ 'TE').TA1  IF VALID    
.*                                                                      
.*                     CHECK 3480X COMPACTION                      @H2A 
         AIF   ('&TRTCH' EQ 'COMP' OR '&TRTCH' EQ 'NOCOMP').TA1B   @H2A 
.*                                                                      
.*                     INVALID TRTCH                               @H2A 
         IHBERMAC 150,TRTCH,&TRTCH                                      
         AGO   .TA11                                               @H1A 
.*                                                                      
.*                 3480X TRTCH SPECIFICATION                       @H2A 
.TA1B    ANOP                                                      @H2A 
&B4      SETB  ('&TRTCH' EQ 'COMP')                                @H2A 
&B5      SETB  ('&TRTCH' EQ 'NOCOMP')                              @H2A 
&TEMPC   SETC  '0000&B4&B5.00'     To preserve comment alignment   @03A 
         DC    BL1'&TEMPC'    TRTCH                                     
         AGO   .TA11                                               @H2A 
.*                                                                      
.*                 7-TRACK TRTCH SPECIFICATION                     @H2A 
.TA1     ANOP                                                           
&B2      SETB  ('&TRTCH' EQ 'T' OR '&TRTCH' EQ 'E' OR '&TRTCH' EQ 'TE' *
               OR '&TRTCH' EQ 'ET')                                     
&B3      SETB  ('&TRTCH' EQ 'C' OR '&TRTCH' EQ 'T')                     
&B4      SETB  ('&TRTCH' EQ 'T' OR '&TRTCH' EQ 'TE' OR '&TRTCH' EQ 'ET'*